OPT_V10/Two_days_MCY3_MIQCPM1/powerflow_results_t32.txt
Pandapower Network Debug Info
==================================================

BUS:
       vm_pu  va_degree      p_mw    q_mvar
0   0.994232   0.107065  0.000899  0.000968
1   0.990685   0.174916  0.001110  0.001658
2   0.987457   0.237361  0.001620  0.002441
3   0.991212   0.173241  0.001961  0.003234
4   0.999891   0.001150  0.008204  0.009577
5   0.999877   0.001258  0.009551  0.009793
6   0.999867   0.001345  0.012223  0.012640
7   0.999933   0.000767  0.000000  0.000000
8   0.999933   0.000772  0.000000  0.000000
9   1.000000   0.000000 -0.035672 -0.045378
10  1.000000   0.000006  0.000000  0.000000
--------------------------------------------------

LINE:
   p_from_mw  q_from_mvar   p_to_mw  q_to_mvar         pl_mw       ql_mvar  i_from_ka   i_to_ka      i_ka  vm_from_pu  va_from_degree  vm_to_pu  va_to_degree  loading_percent
0   0.035662     0.041378 -0.035659  -0.041376  2.918673e-06  2.275737e-06   0.002103  0.002103  0.002103    1.000000        0.000006  0.999933      0.000767         0.914143
1   0.029979     0.032012 -0.029977  -0.032011  1.487598e-06  1.159905e-06   0.001688  0.001688  0.001688    0.999933        0.000767  0.999891      0.001150         0.733997
2   0.005670     0.008364 -0.005622  -0.008327  4.776557e-05  3.724360e-05   0.014586  0.014586  0.014586    0.999933        0.000772  0.994232      0.107065         6.341848
3  -0.021773    -0.022434  0.021774   0.022434  3.380726e-07  2.636008e-07   0.001203  0.001203  0.001203    0.999877        0.001258  0.999891      0.001150         0.523237
4  -0.012223    -0.012640  0.012223   0.012640  1.512423e-07  1.179261e-07   0.000677  0.000677  0.000677    0.999867        0.001345  0.999877      0.001258         0.294288
5  -0.002738    -0.004106  0.002752   0.004118  1.468079e-05  1.144685e-05   0.007190  0.007190  0.007190    0.990685        0.174916  0.994232      0.107065         3.126101
6  -0.001961    -0.003234  0.001971   0.003242  9.721076e-06  7.579683e-06   0.005507  0.005507  0.005507    0.991212        0.173241  0.994232      0.107065         2.394545
7  -0.001620    -0.002441  0.001628   0.002448  7.963581e-06  6.209335e-06   0.004283  0.004283  0.004283    0.987457        0.237361  0.990685      0.174916         1.861997
--------------------------------------------------

TRAFO:
    p_hv_mw  q_hv_mvar   p_lv_mw  q_lv_mvar    pl_mw  ql_mvar   i_hv_ka   i_lv_ka  vm_hv_pu  va_hv_degree  vm_lv_pu  va_lv_degree  loading_percent
0  0.005680   0.009364 -0.005670  -0.008364  0.00001    0.001  0.000422  0.014586  0.999933      0.000767  0.999933      0.000772         0.109529
1  0.035672   0.045378 -0.035662  -0.041378  0.00001    0.004  0.000476  0.002103  1.000000      0.000000  1.000000      0.000006         0.144301
--------------------------------------------------
